Version 4
SHEET 1 1360 680
WIRE 464 -80 336 -80
WIRE 336 -32 336 -80
WIRE 464 -32 464 -80
WIRE 224 80 144 80
WIRE 256 80 224 80
WIRE 144 112 144 80
WIRE 336 112 336 48
WIRE 416 112 336 112
WIRE 464 112 416 112
WIRE 96 192 -16 192
WIRE 144 192 144 160
WIRE 256 192 256 80
WIRE 288 192 256 192
WIRE 336 192 336 160
WIRE -16 256 -16 192
WIRE 144 256 144 208
WIRE -16 352 -16 336
WIRE 144 352 144 336
WIRE 336 352 336 208
FLAG 464 48 0
FLAG 144 352 0
FLAG 336 352 0
FLAG 224 80 Vin_INV
FLAG 416 112 Vout_INV
FLAG -16 352 0
SYMBOL cmosn 288 112 R0
SYMATTR InstName M2
SYMATTR Value2 l=180n w=400n
SYMBOL res 320 -48 R0
SYMATTR InstName R1
SYMATTR Value 13.64k
SYMBOL voltage 464 -48 R0
WINDOW 123 0 0 Left 0
WINDOW 39 0 0 Left 0
SYMATTR InstName V1
SYMATTR Value 1.8
SYMBOL voltage 144 240 R0
WINDOW 123 0 0 Left 0
WINDOW 39 0 0 Left 0
SYMATTR InstName V2
SYMATTR Value 1.8
SYMBOL voltage -16 240 R0
WINDOW 123 0 0 Left 0
WINDOW 39 0 0 Left 0
SYMATTR InstName V3
SYMATTR Value 1.8
SYMBOL cmosn 96 112 R0
SYMATTR InstName M1
SYMATTR Value2 l=180n w=X
TEXT -40 -88 Left 2 !.INCLUDE tsmc018.lib
TEXT -40 -152 Left 2 !.step param n 1 3 1\n.param X =table(n,  1,400n,  2,800n,  3,1600n)
TEXT -40 -48 Left 2 !.dc V3 1.8 0 0.01
