Version 4
SHEET 1 2184 1940
WIRE -528 -64 -832 -64
WIRE -528 16 -528 -64
WIRE -576 96 -624 96
WIRE -528 96 -528 64
WIRE -656 160 -704 160
WIRE -624 160 -624 96
WIRE -624 160 -656 160
WIRE -528 160 -528 112
WIRE -432 160 -528 160
WIRE -272 160 -432 160
WIRE -528 192 -528 160
WIRE -832 208 -832 -64
WIRE -704 208 -704 160
WIRE -528 208 -528 192
WIRE -272 208 -272 160
WIRE -624 272 -624 160
WIRE -576 272 -624 272
WIRE -528 272 -528 240
WIRE -832 352 -832 288
WIRE -704 352 -704 288
WIRE -704 352 -832 352
WIRE -528 352 -528 288
WIRE -528 352 -704 352
WIRE -272 352 -272 272
WIRE -272 352 -528 352
WIRE -704 384 -704 352
FLAG -704 384 0
FLAG -656 160 Vin1
FLAG -432 160 Vout1
DATAFLAG -624 96 ""
SYMBOL voltage -704 192 R0
WINDOW 123 0 0 Left 0
WINDOW 39 0 0 Left 0
WINDOW 3 24 44 Left 2
SYMATTR Value PULSE(0 1.8 2.5u 10n 10n 5u 10u)
SYMATTR InstName V1
SYMBOL voltage -832 192 R0
WINDOW 123 0 0 Left 0
WINDOW 39 0 0 Left 0
SYMATTR InstName V2
SYMATTR Value 1.8
SYMBOL cmosn -576 192 R0
SYMATTR InstName M1
SYMATTR Value2 l=180n w=X
SYMBOL cmosp -576 16 R0
SYMATTR InstName M4
SYMATTR Value2 l=180n w=Y
SYMBOL cap -288 208 R0
SYMATTR InstName C1
SYMATTR Value 5p
TEXT -448 48 Left 2 !.INCLUDE tsmc018.lib
TEXT -448 -8 Left 2 !.tran 20u
TEXT -792 -152 Left 2 !.step param n 1 3 1\n.param X = table(n,  1,400n,  2,800n,  3,1600n)\n.param Y = 3.2*X
TEXT -496 -64 Left 2 !.meas FallTime time TRIG V(Vout1)=1.62 TD=10n FALL=1 TARG V(Vout1)=0.18 TD=10n FALL=1
TEXT -496 -32 Left 2 !.meas RiseTime time TRIG V(Vout1)=0.18 TD=10n RISE=1 TARG V(Vout1)=1.62 TD=10n RISE=1
